Circuit: * C:\Users\User\Documents\GitHub\FranklinOSullivan.github.io\NAND gate circuit\SRSpice.asc

Direct Newton iteration for .op point succeeded.

Date: Sat Aug 06 16:41:16 2022
Total elapsed time: 0.182 seconds.

tnom = 27
temp = 27
method = modified trap
totiter = 2110
traniter = 2082
tranpoints = 1042
accept = 1042
rejected = 0
matrix size = 20
fillins = 6
solver = Normal
Matrix Compiler1: 1.54 KB object code size  0.8/0.5/[0.4]
Matrix Compiler2: 1.80 KB object code size  0.4/0.7/[0.5]

